/*--------------------------------*- C++ -*----------------------------------*\
| =========                 |                                                 |
| \\      /  F ield         | OpenFOAM: The Open Source CFD Toolbox           |
|  \\    /   O peration     | Version:  dev                                   |
|   \\  /    A nd           | Web:      www.OpenFOAM.org                      |
|    \\/     M anipulation  |                                                 |
\*---------------------------------------------------------------------------*/
FoamFile
{
    version     2.0;
    format      ascii;
    class       dictionary;
    object      blockMeshDict;
}
// * * * * * * * * * * * * * * * * * * * * * * * * * * * * * * * * * * * * * //

convertToMeters 1.0;

vertices
(
    (-0.3 -0.3 0.05)
    ( 0.3 -0.3 0.05)
    ( 0.3  0.3 0.05)
    (-0.3  0.3 0.05)
    (-0.3 -0.3  0.35)
    ( 0.3 -0.3  0.35)
    ( 0.3  0.3  0.35)
    (-0.3  0.3  0.35)
);

blocks
(
    hex (0 1 2 3 4 5 6 7) (30 30 30) simpleGrading (1 1 1)
);

edges
(
);

boundary
(
    inlet
    {
        type patch;
        faces
        (
            (4 5 6 7)
        );
    }
    outlet
    {
        type patch;
        faces
        (
            (0 3 2 1)
        );
    }
    other
    {
        type wall;
        faces
        (
            (0 4 7 3)
            (2 6 5 1)
            (1 5 4 0)
            (3 7 6 2)
        );
    }
);

mergePatchPairs
(
);

// ************************************************************************* //
